*Heading
** Job name: Job-2 Model name: c_clamp_device
** Generated by: Abaqus/CAE Learning Edition 2025
*Preprint, echo=NO, model=NO, history=NO, contact=NO
**
** PARTS
**
*Part, name=c_clamp
*Node
      1,        -250.,        -100.
      2,        -250.,        -150.
      3,         -25.,        -150.
      4,         -25.,        -100.
      5,         250.,        -100.
      6,         250.,        -150.
      7,         300.,        -150.
      8,         300.,        -100.
      9,        -300.,        -150.
     10,        -300.,        -300.
     11,        -250.,        -300.
     12,        -300.,        -100.
     13,          25.,        -150.
     14,          25.,        -100.
     15,          25.,           0.
     16,         -25.,           0.
     17,         250.,        -300.
     18,         300.,        -300.
     19,        -250.,       -112.5
     20,        -250.,        -125.
** ... 385 like lines cut
*Element, type=CPE4R
 1,   1,  19, 187,  58
 2,  19,  20, 188, 187
 3,  20,  21, 189, 188
 4,  21,   2,  22, 189
 5,  58, 187, 190,  57
 6, 187, 188, 191, 190
 7, 188, 189, 192, 191
 8, 189,  22,  23, 192
 9,  57, 190, 193,  56
10, 190, 191, 194, 193
11, 191, 192, 195, 194
12, 192,  23,  24, 195
13,  56, 193, 196,  55
14, 193, 194, 197, 196
15, 194, 195, 198, 197
16, 195,  24,  25, 198
17,  55, 196, 199,  54
18, 196, 197, 200, 199
19, 197, 198, 201, 200
20, 198,  25,  26, 201
** ... 300 like lines cut
*Nset, nset=_PickedSet7, internal, generate
   1,  405,    1
*Elset, elset=_PickedSet7, internal, generate
   1,  320,    1
** Section: c_clamp_section
*Solid Section, elset=_PickedSet7, material=structural_steel
500.,
*End Part
**  
**
** ASSEMBLY
**
*Assembly, name=Assembly
**  
*Instance, name=c_clamp-1, part=c_clamp
*End Instance
**  
*Nset, nset=_PickedSet4, internal, instance=c_clamp-1
  15,  16, 118, 119, 120
*Elset, elset=_PickedSet4, internal, instance=c_clamp-1, generate
 197,  200,    1
*Elset, elset=__PickedSurf5_S4, internal, instance=c_clamp-1, generate
  89,  133,    4
*Surface, type=ELEMENT, name=_PickedSurf5, internal
__PickedSurf5_S4, S4
*Elset, elset=__PickedSurf6_S2, internal, instance=c_clamp-1, generate
 204,  248,    4
*Surface, type=ELEMENT, name=_PickedSurf6, internal
__PickedSurf6_S2, S2
*End Assembly
** 
** MATERIALS
** 
*Material, name=structural_steel
*Elastic
200000., 0.3
** 
** BOUNDARY CONDITIONS
** 
** Name: fixed_node Type: Symmetry/Antisymmetry/Encastre
*Boundary
_PickedSet4, PINNED
** ----------------------------------------------------------------
** 
** STEP: load_step
** 
*Step, name=load_step, nlgeom=NO, unsymm=NO
*Static
1., 1., 1e-05, 1.
** 
** LOADS
** 
** Name: left_pressure   Type: Pressure
*Dsload
_PickedSurf5, P, 1.33333
** Name: right_pressure   Type: Pressure
*Dsload
_PickedSurf6, P, 1.33333
** 
** OUTPUT REQUESTS
** 
*Restart, write, frequency=0
** 
** FIELD OUTPUT: F-Output-1
** 
*Output, field
*Node Output
RT, UT
*Element Output, directions=YES
E, S
** 
** HISTORY OUTPUT: H-Output-1
** 
*Output, history, variable=PRESELECT
*End Step
